case_files/case14.m
function mpc = case14
%CASE14 MATPOWER

%% MATPOWER Case Format : Version 2
mpc.version = '2';

%%-----  Power Flow Data  -----%%
%% system MVA base
mpc.baseMVA = 100;

%% bus data
%	bus_i	type	Pd	Qd	Gs	Bs	area	Vm	Va	baseKV	zone	Vmax	Vmin
mpc.bus = [
	1	3	0       0	0	0	1	1.06	0	0	1	1.06	0.94;
	2	2	21.7	12.7	0	0	1	1.045	-4.98	0	1	1.06	0.94;
	3	2	94.2	19	0	0	1	1.01	-12.72	0	1	1.06	0.94;
	4	1	47.8	-3.9	0	0	1	1.019	-10.33	0	1	1.06	0.94;
	5	1	7.6	1.6	0	0	1	1.02	-8.78	0	1	1.06	0.94;
	6	2	11.2	7.5	0	0	1	1.07	-14.22	0	1	1.06	0.94;
	7	1	0	0	0	0	1	1.062	-13.37	0	1	1.06	0.94;
	8	2	0	0	0	0	1	1.09	-13.36	0	1	1.06	0.94;
	9	1	29.5	16.6	0	19	1	1.056	-14.94	0	1	1.06	0.94;
	10	1	9	5.8	0	0	1	1.051	-15.1	0	1	1.06	0.94;
	11	1	3.5	1.8	0	0	1	1.057	-14.79	0	1	1.06	0.94;
	12	1	6.1	1.6	0	0	1	1.055	-15.07	0	1	1.06	0.94;
	13	1	13.5	5.8	0	0	1	1.05	-15.16	0	1	1.06	0.94;
	14	1	14.9	5	0	0	1	1.036	-16.04	0	1	1.06	0.94;
];

%% generator data
%	bus	Pg	Qg	Qmax	Qmin	Vg	mBase	status	Pmax	Pmin	Pc1	Pc2	Qc1min	Qc1max	Qc2min	Qc2max	ramp_agc	ramp_10	ramp_30	ramp_q	apf
mpc.gen = [
	1	232.4	-16.9	10	0	1.06	100	1	332.4	0	0	0	0	0	0	0	0	0	0	0	0;
	2	40	42.4	50	-40	1.045	100	1	140	0	0	0	0	0	0	0	0	0	0	0	0;
	3	0	23.4	40	0	1.01	100	1	100	0	0	0	0	0	0	0	0	0	0	0	0;
	6	0	12.2	24	-6	1.07	100	1	100	0	0	0	0	0	0	0	0	0	0	0	0;
	8	0	17.4	24	-6	1.09	100	1	100	0	0	0	0	0	0	0	0	0	0	0	0;
];

%% branch data
%	fbus	tbus	r	x	b	rateA	rateB	rateC	ratio	angle	status	angmin	angmax	Pf	Qf	Pt	Qt	mu_Sf	mu_St	mu_angmin	mu_angmax
mpc.branch = [
	1	2	0.01938	0.05917	0.0528	0	0	0	0	0	1	-5.22042756	13.0581721	0.0000	0.0000	0.0000	0.0000	0.0000	0.0000	0.0000	0.0000;
	1	5	0.05403	0.22304	0.0492	0	0	0	0	0	1	-7.96781114	26.7444418	0.0000	0.0000	0.0000	0.0000	0.0000	0.0000	0.0000	0.0000;
	2	3	0.04699	0.19797	0.0438	0	0	0	0	0	1	-7.9978085	20.5827841	0.0000	0.0000	0.0000	0.0000	0.0000	0.0000	0.0000	0.0000;
	2	4	0.05811	0.17632	0.034	0	0	0	0	0	1	-8.29435144	22.9250175	0.0000	0.0000	0.0000	0.0000	0.0000	0.0000	0.0000	0.0000;
	2	5	0.05695	0.17388	0.0346	0	0	0	0	0	1	-10.4489804	20.4039186	0.0000	0.0000	0.0000	0.0000	0.0000	0.0000	0.0000	0.0000;
	3	4	0.06701	0.17103	0.0128	0	0	0	0	0	1	-12.8664174	14.3316632	0.0000	0.0000	0.0000	0.0000	0.0000	0.0000	0.0000	0.0000;
	4	5	0.01335	0.04211	0	0	0	0	0	0	1	-7.9776303	3.77082406	0.0000	0.0000	0.0000	0.0000	0.0000	0.0000	0.0000	0.0000;
	4	7	0	0.20912	0	0	0	0	0.978	0	1	-38.707566	70.602912	0.0000	0.0000	0.0000	0.0000	0.0000	0.0000	0.0000	0.0000;
	4	9	0	0.55618	0	0	0	0	0.969	0	1	-23.4971826	43.6217058	0.0000	0.0000	0.0000	0.0000	0.0000	0.0000	0.0000	0.0000;
	5	6	0	0.25202	0	0	0	0	0.932	0	1	-20.0139259	27.6682707	0.0000	0.0000	0.0000	0.0000	0.0000	0.0000	0.0000	0.0000;
	6	11	0.09498	0.1989	0	0	0	0	0	0	1	-6.98353309	9.76741809	0.0000	0.0000	0.0000	0.0000	0.0000	0.0000	0.0000	0.0000;
	6	12	0.12291	0.25581	0	0	0	0	0	0	1	-2.69617459	4.93261637	0.0000	0.0000	0.0000	0.0000	0.0000	0.0000	0.0000	0.0000;
	6	13	0.06615	0.13027	0	0	0	0	0	0	1	-3.15812089	5.77392214	0.0000	0.0000	0.0000	0.0000	0.0000	0.0000	0.0000	0.0000;
	7	8	0	0.17615	0	0	0	0	0	0	1	-13.2353219	2.08052384	0.0000	0.0000	0.0000	0.0000	0.0000	0.0000	0.0000	0.0000;
	7	9	0	0.11001	0	0	0	0	0	0	1	-2.44265226	7.36944028	0.0000	0.0000	0.0000	0.0000	0.0000	0.0000	0.0000	0.0000;
	9	10	0.03181	0.0845	0	0	0	0	0	0	1	-3.82018199	3.84379819	0.0000	0.0000	0.0000	0.0000	0.0000	0.0000	0.0000	0.0000;
	9	14	0.12711	0.27038	0	0	0	0	0	0	1	-6.15510903	7.91086919	0.0000	0.0000	0.0000	0.0000	0.0000	0.0000	0.0000	0.0000;
	10	11	0.08205	0.19207	0	0	0	0	0	0	1	-8.7616284	6.67569567	0.0000	0.0000	0.0000	0.0000	0.0000	0.0000	0.0000	0.0000;
	12	13	0.22092	0.19988	0	0	0	0	0	0	1	-4.75912978	5.14095966	0.0000	0.0000	0.0000	0.0000	0.0000	0.0000	0.0000	0.0000;
	13	14	0.17093	0.34802	0	0	0	0	0	0	1	-9.90069005	13.4769625	0.0000	0.0000	0.0000	0.0000	0.0000	0.0000	0.0000	0.0000;
];

%%-----  OPF Data  -----%%
%% generator cost data
%	1	startup	shutdown	n	x1	y1	...	xn	yn
%	2	startup	shutdown	n	c(n-1)	...	c0
mpc.gencost = [
	2	0	0	3	0.0430292599	20	0;
	2	0	0	3	0.25	20	0;
	2	0	0	3	0.01	40	0;
	2	0	0	3	0.01	40	0;
	2	0	0	3	0.01	40	0;
];

%% bus names
mpc.bus_name = {
	'Bus 1     HV';
	'Bus 2     HV';
	'Bus 3     HV';
	'Bus 4     HV';
	'Bus 5     HV';
	'Bus 6     LV';
	'Bus 7     ZV';
	'Bus 8     TV';
	'Bus 9     LV';
	'Bus 10    LV';
	'Bus 11    LV';
	'Bus 12    LV';
	'Bus 13    LV';
	'Bus 14    LV';
};
